03_OpenDSS_Circuits/Commonwealth_Circuit_Opendss/Archive/COMMONWEALTH_RET_01311205_Power_seq_kVA.txt

SYMMETRICAL COMPONENT POWERS BY CIRCUIT ELEMENT (first 3 phases)                                     Excess Power

Element                                   Term    P1(kW)   Q1(kvar)       P2         Q2      P0      Q0       P_Norm      Q_Norm     P_Emerg    Q_Emerg

"Vsource.SOURCE"                           1     -177.8       12.9        0.0        0.0     0.0     0.0
"Vsource.SOURCE"                           2        0.0        0.0        0.0        0.0     0.0     0.0
"Transformer.COMMONWEALTH_RET_01311205_1"  1        0.0        0.0        0.0        0.0     0.0     0.0        0.0        0.0        0.0        0.0
"Transformer.COMMONWEALTH_RET_01311205_1"  2        0.0        0.0        0.0        0.0     0.0     0.0
"Transformer.COMMONWEALTH_RET_01311205_2"  1        0.0        0.0        0.0        0.0     0.0     0.0        0.0        0.0        0.0        0.0
"Transformer.COMMONWEALTH_RET_01311205_2"  2        0.0        0.0        0.0        0.0     0.0     0.0
"Transformer.COMMONWEALTH_RET_01311205_3"  1        0.0        0.0        0.0        0.0     0.0     0.0        0.0        0.0        0.0        0.0
"Transformer.COMMONWEALTH_RET_01311205_3"  2        0.0        0.0        0.0        0.0     0.0     0.0
"Line.264256886"                           1       -0.0        0.0       -0.0        0.0     0.0     0.0        0.0        0.0        0.0        0.0
"Line.264256886"                           2        0.0       -0.0        0.0       -0.0    -0.0    -0.0
"Line.263962003"                           1        0.0        0.0        0.0        0.0     0.0     0.0        0.0        0.0        0.0        0.0
"Line.263962003"                           2        0.0        0.0        0.0        0.0     0.0     0.0
"Line.260761331"                           1        0.0        0.0        0.0        0.0     0.0     0.0        0.0        0.0        0.0        0.0
"Line.260761331"                           2        0.0        0.0        0.0        0.0     0.0     0.0
"Line.264256882"                           1       -0.0        0.0       -0.0        0.0     0.0     0.0        0.0        0.0        0.0        0.0
"Line.264256882"                           2        0.0       -0.0        0.0       -0.0    -0.0    -0.0
"Line.260761151"                           1        0.0        0.0        0.0        0.0     0.0     0.0        0.0        0.0        0.0        0.0
"Line.260761151"                           2        0.0        0.0        0.0        0.0     0.0     0.0
"Line.260761156"                           1        0.0        0.0        0.0        0.0     0.0     0.0        0.0        0.0        0.0        0.0
"Line.260761156"                           2        0.0        0.0        0.0        0.0     0.0     0.0
"Line.260761296"                           1        0.0        0.0        0.0        0.0     0.0     0.0        0.0        0.0        0.0        0.0
"Line.260761296"                           2        0.0        0.0        0.0        0.0     0.0     0.0
"Line.260761311"                           1        0.0        0.0        0.0        0.0     0.0     0.0        0.0        0.0        0.0        0.0
"Line.260761311"                           2        0.0        0.0        0.0        0.0     0.0     0.0
"Line.260760191"                           1       -0.0       -0.0       -0.0       -0.0    -0.0    -0.0        0.0        0.0        0.0        0.0
"Line.260760191"                           2        0.0        0.0        0.0        0.0     0.0     0.0
"Line.261302049"                           1        0.0        0.0        0.0        0.0     0.0     0.0        0.0        0.0        0.0        0.0
"Line.261302049"                           2        0.0        0.0        0.0        0.0     0.0     0.0
"Line.263530723"                           1        0.0        0.0        0.0        0.0     0.0     0.0        0.0        0.0        0.0        0.0
"Line.263530723"                           2       -0.0       -0.0       -0.0       -0.0    -0.0    -0.0
"Line.260761094"                           1        0.0        0.0        0.0        0.0     0.0     0.0        0.0        0.0        0.0        0.0
"Line.260761094"                           2        0.0        0.0        0.0        0.0     0.0     0.0
"Line.261302044"                           1        0.0        0.0        0.0        0.0     0.0     0.0        0.0        0.0        0.0        0.0
"Line.261302044"                           2        0.0        0.0        0.0        0.0     0.0     0.0
"Line.263530682"                           1        0.0        0.0        0.0        0.0     0.0     0.0        0.0        0.0        0.0        0.0
"Line.263530682"                           2        0.0        0.0        0.0        0.0     0.0     0.0
"Line.263530687"                           1        0.0        0.0        0.0        0.0     0.0     0.0        0.0        0.0        0.0        0.0
"Line.263530687"                           2        0.0        0.0        0.0        0.0     0.0     0.0
"Line.260761119"                           1        0.0        0.0        0.0        0.0     0.0     0.0        0.0        0.0        0.0        0.0
"Line.260761119"                           2        0.0        0.0        0.0        0.0     0.0     0.0
"Line.264308703"                           1        0.0        0.0        0.0        0.0     0.0     0.0        0.0        0.0        0.0        0.0
"Line.264308703"                           2        0.0        0.0        0.0        0.0     0.0     0.0
"Line.617632356"                           1        0.0        0.0        0.0        0.0     0.0     0.0        0.0        0.0        0.0        0.0
"Line.617632356"                           2        0.0        0.0        0.0        0.0     0.0     0.0
"Line.263530700"                           1        0.0        0.0        0.0        0.0     0.0     0.0        0.0        0.0        0.0        0.0
"Line.263530700"                           2        0.0        0.0        0.0        0.0     0.0     0.0
"Line.263997294"                           1        0.0        0.0        0.0        0.0     0.0     0.0        0.0        0.0        0.0        0.0
"Line.263997294"                           2        0.0        0.0        0.0        0.0     0.0     0.0
"Line.617632351"                           1        0.0        0.0        0.0        0.0     0.0     0.0        0.0        0.0        0.0        0.0
"Line.617632351"                           2        0.0        0.0        0.0        0.0     0.0     0.0
"Line.263530705"                           1        0.0        0.0        0.0        0.0     0.0     0.0        0.0        0.0        0.0        0.0
"Line.263530705"                           2        0.0        0.0        0.0        0.0     0.0     0.0
"Line.263997299"                           1        0.0        0.0        0.0        0.0     0.0     0.0        0.0        0.0        0.0        0.0
"Line.263997299"                           2        0.0        0.0        0.0        0.0     0.0     0.0
"Line.263530709"                           1        0.0        0.0        0.0        0.0     0.0     0.0        0.0        0.0        0.0        0.0
"Line.263530709"                           2       -0.0       -0.0       -0.0       -0.0    -0.0    -0.0
"Line.263533203"                           1        0.0        0.0        0.0        0.0     0.0     0.0        0.0        0.0        0.0        0.0
"Line.263533203"                           2        0.0        0.0        0.0        0.0     0.0     0.0
"Line.263533208"                           1        0.0        0.0        0.0        0.0     0.0     0.0        0.0        0.0        0.0        0.0
"Line.263533208"                           2        0.0        0.0        0.0        0.0     0.0     0.0
"Line.617632317"                           1        0.0        0.0        0.0        0.0     0.0     0.0        0.0        0.0        0.0        0.0
"Line.617632317"                           2        0.0        0.0        0.0        0.0     0.0     0.0
"Line.263533122"                           1        0.0        0.0        0.0        0.0     0.0     0.0        0.0        0.0        0.0        0.0
"Line.263533122"                           2        0.0        0.0        0.0        0.0     0.0     0.0
"Line.263533127"                           1        0.0        0.0        0.0        0.0     0.0     0.0        0.0        0.0        0.0        0.0
"Line.263533127"                           2        0.0        0.0        0.0        0.0     0.0     0.0
"Line.263533082"                           1        0.0        0.0        0.0        0.0     0.0     0.0        0.0        0.0        0.0        0.0
"Line.263533082"                           2        0.0        0.0        0.0        0.0     0.0     0.0
"Line.263533001"                           1        0.0        0.0        0.0        0.0     0.0     0.0        0.0        0.0        0.0        0.0
"Line.263533001"                           2        0.0        0.0        0.0        0.0     0.0     0.0
"Line.263533100"                           1        0.0       -0.0        0.0       -0.0     0.0     0.0        0.0        0.0        0.0        0.0
"Line.263533100"                           2       -0.0       -0.0       -0.0       -0.0    -0.0    -0.0
"Line.263533104"                           1        0.0        0.0        0.0        0.0     0.0     0.0        0.0        0.0        0.0        0.0
"Line.263533104"                           2       -0.0       -0.0       -0.0       -0.0    -0.0    -0.0
"Line.263533185"                           1        0.0        0.0        0.0        0.0     0.0     0.0        0.0        0.0        0.0        0.0
"Line.263533185"                           2        0.0        0.0        0.0        0.0     0.0     0.0
"Line.263533109"                           1       -0.0       -0.0        0.0       -0.0    -0.0    -0.0        0.0        0.0        0.0        0.0
"Line.263533109"                           2        0.0       -0.0       -0.0       -0.0     0.0    -0.0
"Line.263857509"                           1        0.0        0.0        0.0        0.0     0.0     0.0        0.0        0.0        0.0        0.0
"Line.263857509"                           2        0.0        0.0        0.0        0.0     0.0     0.0
"Line.263534343"                           1        0.0       -0.0        0.0       -0.0     0.0    -0.0        0.0        0.0        0.0        0.0
"Line.263534343"                           2       -0.0       -0.0       -0.0        0.0    -0.0     0.0
"Line.263534401"                           1        0.8        0.2        0.0       -0.0     0.0    -0.0        0.0        0.0        0.0        0.0
"Line.263534401"                           2       -0.8       -0.2       -0.0        0.0    -0.0     0.0
"Line.263534406"                           1       -0.0        0.0       -0.0        0.0     0.0     0.0        0.0        0.0        0.0        0.0
"Line.263534406"                           2        0.0       -0.0        0.0       -0.0    -0.0    -0.0
"Line.263532960"                           1        0.0        0.0        0.0        0.0     0.0     0.0        0.0        0.0        0.0        0.0
"Line.263532960"                           2        0.0        0.0        0.0        0.0     0.0     0.0
"Line.263532965"                           1        0.0        0.0        0.0        0.0     0.0     0.0        0.0        0.0        0.0        0.0
"Line.263532965"                           2        0.0        0.0        0.0        0.0     0.0     0.0
"Line.263532969"                           1        0.0        0.0        0.0        0.0     0.0     0.0        0.0        0.0        0.0        0.0
"Line.263532969"                           2        0.0        0.0        0.0        0.0     0.0     0.0
"Line.264256778"                           1        0.0        0.0        0.0        0.0     0.0     0.0        0.0        0.0        0.0        0.0
"Line.264256778"                           2        0.0        0.0        0.0        0.0     0.0     0.0
"Line.263532942"                           1        0.0        0.0        0.0        0.0     0.0     0.0        0.0        0.0        0.0        0.0
"Line.263532942"                           2        0.0        0.0        0.0        0.0     0.0     0.0
"Line.263532947"                           1        0.0        0.0        0.0        0.0     0.0     0.0        0.0        0.0        0.0        0.0
"Line.263532947"                           2        0.0        0.0        0.0        0.0     0.0     0.0
"Line.264256756"                           1        0.0        0.0        0.0        0.0     0.0     0.0        0.0        0.0        0.0        0.0
"Line.264256756"                           2        0.0        0.0        0.0        0.0     0.0     0.0
"Line.263904548"                           1        0.0        0.0        0.0        0.0     0.0     0.0        0.0        0.0        0.0        0.0
"Line.263904548"                           2        0.0        0.0        0.0        0.0     0.0     0.0
"Line.264256751"                           1        0.0        0.0        0.0        0.0     0.0     0.0        0.0        0.0        0.0        0.0
"Line.264256751"                           2        0.0        0.0        0.0        0.0     0.0     0.0
"Line.264256634"                           1        0.0        0.0        0.0        0.0     0.0     0.0        0.0        0.0        0.0        0.0
"Line.264256634"                           2       -0.0       -0.0       -0.0       -0.0    -0.0    -0.0
"Line.263532920"                           1        0.0        0.0        0.0        0.0     0.0     0.0        0.0        0.0        0.0        0.0
"Line.263532920"                           2        0.0        0.0        0.0        0.0     0.0     0.0
"Line.264256630"                           1        0.0        0.0        0.0        0.0     0.0     0.0        0.0        0.0        0.0        0.0
"Line.264256630"                           2       -0.0       -0.0       -0.0       -0.0    -0.0    -0.0
"Line.264256734"                           1        0.0        0.0        0.0        0.0     0.0     0.0        0.0        0.0        0.0        0.0
"Line.264256734"                           2        0.0        0.0        0.0        0.0     0.0     0.0
"Line.264256733"                           1        0.0        0.0        0.0        0.0     0.0     0.0        0.0        0.0        0.0        0.0
"Line.264256733"                           2        0.0        0.0        0.0        0.0     0.0     0.0
"Line.263532987"                           1        0.0        0.0        0.0        0.0     0.0     0.0        0.0        0.0        0.0        0.0
"Line.263532987"                           2        0.0        0.0        0.0        0.0     0.0     0.0
"Line.633960134"                           1        0.0       -0.0        0.0       -0.0     0.0     0.0        0.0        0.0        0.0        0.0
"Line.633960134"                           2       -0.0        0.0        0.0       -0.0    -0.0    -0.0
"Line.264331251"                           1        0.0        0.0        0.0        0.0     0.0     0.0        0.0        0.0        0.0        0.0
"Line.264331251"                           2        0.0        0.0        0.0        0.0     0.0     0.0
"Line.260762260"                           1        0.0        0.0        0.0        0.0     0.0     0.0        0.0        0.0        0.0        0.0
"Line.260762260"                           2        0.0        0.0        0.0        0.0     0.0     0.0
"Line.260761266"                           1        0.0        0.0        0.0        0.0     0.0     0.0        0.0        0.0        0.0        0.0
"Line.260761266"                           2        0.0        0.0        0.0        0.0     0.0     0.0
"Line.704839766"                           1        0.0        0.0        0.0        0.0     0.0     0.0        0.0        0.0        0.0        0.0
"Line.704839766"                           2        0.0        0.0        0.0        0.0     0.0     0.0
"Line.704839761"                           1        0.0        0.0        0.0        0.0     0.0     0.0        0.0        0.0        0.0        0.0
"Line.704839761"                           2        0.0        0.0        0.0        0.0     0.0     0.0
"Line.260761246"                           1        0.0        0.0        0.0        0.0     0.0     0.0        0.0        0.0        0.0        0.0
"Line.260761246"                           2        0.0        0.0        0.0        0.0     0.0     0.0
"Line.260761346"                           1        0.0        0.0        0.0        0.0     0.0     0.0        0.0        0.0        0.0        0.0
"Line.260761346"                           2        0.0        0.0        0.0        0.0     0.0     0.0
"Line.260761221"                           1        0.0        0.0        0.0        0.0     0.0     0.0        0.0        0.0        0.0        0.0
"Line.260761221"                           2        0.0        0.0        0.0        0.0     0.0     0.0
"Line.260761166"                           1        0.0        0.0        0.0        0.0     0.0     0.0        0.0        0.0        0.0        0.0
"Line.260761166"                           2        0.0        0.0        0.0        0.0     0.0     0.0
"Line.260761226"                           1        0.0        0.0        0.0        0.0     0.0     0.0        0.0        0.0        0.0        0.0
"Line.260761226"                           2        0.0        0.0        0.0        0.0     0.0     0.0
"Line.261245658"                           1        0.0        0.0        0.0        0.0     0.0     0.0        0.0        0.0        0.0        0.0
"Line.261245658"                           2        0.0        0.0        0.0        0.0     0.0     0.0
"Line.260761281"                           1        0.0        0.0        0.0        0.0     0.0     0.0        0.0        0.0        0.0        0.0
"Line.260761281"                           2        0.0        0.0        0.0        0.0     0.0     0.0
"Line.260761201"                           1        0.0        0.0        0.0        0.0     0.0     0.0        0.0        0.0        0.0        0.0
"Line.260761201"                           2        0.0        0.0        0.0        0.0     0.0     0.0
"Line.261245653"                           1        0.0        0.0        0.0        0.0     0.0     0.0        0.0        0.0        0.0        0.0
"Line.261245653"                           2        0.0        0.0        0.0        0.0     0.0     0.0
"Line.260761206"                           1        0.0        0.0        0.0        0.0     0.0     0.0        0.0        0.0        0.0        0.0
"Line.260761206"                           2        0.0        0.0        0.0        0.0     0.0     0.0
"Line.260761301"                           1        0.0        0.0        0.0        0.0     0.0     0.0        0.0        0.0        0.0        0.0
"Line.260761301"                           2        0.0        0.0        0.0        0.0     0.0     0.0
"Line.704839483"                           1        0.0        0.0        0.0        0.0     0.0     0.0        0.0        0.0        0.0        0.0
"Line.704839483"                           2        0.0        0.0        0.0        0.0     0.0     0.0
"Line.260761181"                           1        0.0        0.0        0.0        0.0     0.0     0.0        0.0        0.0        0.0        0.0
"Line.260761181"                           2        0.0        0.0        0.0        0.0     0.0     0.0
"Line.260761186"                           1        0.0        0.0        0.0        0.0     0.0     0.0        0.0        0.0        0.0        0.0
"Line.260761186"                           2        0.0        0.0        0.0        0.0     0.0     0.0
"Line.260761104"                           1        0.0        0.0        0.0        0.0     0.0     0.0        0.0        0.0        0.0        0.0
"Line.260761104"                           2        0.0        0.0        0.0        0.0     0.0     0.0
"Line.261302054"                           1        0.0        0.0        0.0        0.0     0.0     0.0        0.0        0.0        0.0        0.0
"Line.261302054"                           2        0.0        0.0        0.0        0.0     0.0     0.0
"Line.264308690"                           1        0.0        0.0        0.0        0.0     0.0     0.0        0.0        0.0        0.0        0.0
"Line.264308690"                           2        0.0        0.0        0.0        0.0     0.0     0.0
"Line.264308694"                           1        0.0        0.0        0.0        0.0     0.0     0.0        0.0        0.0        0.0        0.0
"Line.264308694"                           2        0.0        0.0        0.0        0.0     0.0     0.0
"Line.263533077"                           1        0.0        0.0        0.0        0.0     0.0     0.0        0.0        0.0        0.0        0.0
"Line.263533077"                           2        0.0        0.0        0.0        0.0     0.0     0.0
"Line.264308712"                           1        0.0        0.0        0.0        0.0     0.0     0.0        0.0        0.0        0.0        0.0
"Line.264308712"                           2        0.0        0.0        0.0        0.0     0.0     0.0
"Line.617632322"                           1        0.0        0.0        0.0        0.0     0.0     0.0        0.0        0.0        0.0        0.0
"Line.617632322"                           2        0.0        0.0        0.0        0.0     0.0     0.0
"Line.263533230"                           1        0.0        0.0        0.0        0.0     0.0     0.0        0.0        0.0        0.0        0.0
"Line.263533230"                           2       -0.0       -0.0       -0.0       -0.0    -0.0    -0.0
"Line.263530718"                           1        0.0        0.0        0.0        0.0     0.0     0.0        0.0        0.0        0.0        0.0
"Line.263530718"                           2       -0.0       -0.0       -0.0       -0.0    -0.0    -0.0
"Line.263533235"                           1        0.0       -0.0       -0.0       -0.0     0.0     0.0        0.0        0.0        0.0        0.0
"Line.263533235"                           2       -0.0        0.0       -0.0       -0.0    -0.0    -0.0
"Line.263533050"                           1        0.0        0.0        0.0        0.0     0.0     0.0        0.0        0.0        0.0        0.0
"Line.263533050"                           2        0.0        0.0        0.0        0.0     0.0     0.0
"Line.263533055"                           1        0.0        0.0        0.0        0.0     0.0     0.0        0.0        0.0        0.0        0.0
"Line.263533055"                           2        0.0        0.0        0.0        0.0     0.0     0.0
"Line.263533217"                           1        0.0        0.0        0.0        0.0     0.0     0.0        0.0        0.0        0.0        0.0
"Line.263533217"                           2        0.0        0.0        0.0        0.0     0.0     0.0
"Line.263533131"                           1        0.0        0.0        0.0        0.0     0.0     0.0        0.0        0.0        0.0        0.0
"Line.263533131"                           2        0.0        0.0        0.0        0.0     0.0     0.0
"Line.263533136"                           1        0.0        0.0        0.0        0.0     0.0     0.0        0.0        0.0        0.0        0.0
"Line.263533136"                           2        0.0        0.0        0.0        0.0     0.0     0.0
"Line.264281558"                           1        0.0        0.0        0.0        0.0     0.0     0.0        0.0        0.0        0.0        0.0
"Line.264281558"                           2        0.0        0.0        0.0        0.0     0.0     0.0
"Line.263533095"                           1        0.0        0.0        0.0        0.0     0.0     0.0        0.0        0.0        0.0        0.0
"Line.263533095"                           2       -0.0       -0.0       -0.0       -0.0    -0.0    -0.0
"Line.263533113"                           1        0.0        0.0        0.0        0.0     0.0     0.0        0.0        0.0        0.0        0.0
"Line.263533113"                           2        0.0        0.0        0.0        0.0     0.0     0.0
"Line.263533190"                           1        0.0        0.0        0.0        0.0     0.0     0.0        0.0        0.0        0.0        0.0
"Line.263533190"                           2        0.0        0.0        0.0        0.0     0.0     0.0
"Line.263533194"                           1        0.0        0.0        0.0        0.0     0.0     0.0        0.0        0.0        0.0        0.0
"Line.263533194"                           2        0.0        0.0        0.0        0.0     0.0     0.0
"Line.263533118"                           1        0.0        0.0        0.0        0.0     0.0     0.0        0.0        0.0        0.0        0.0
"Line.263533118"                           2        0.0        0.0        0.0        0.0     0.0     0.0
"Line.263533199"                           1        0.0        0.0        0.0        0.0     0.0     0.0        0.0        0.0        0.0        0.0
"Line.263533199"                           2        0.0        0.0        0.0        0.0     0.0     0.0
"Line.263857514"                           1        0.0        0.0        0.0        0.0     0.0     0.0        0.0        0.0        0.0        0.0
"Line.263857514"                           2        0.0        0.0        0.0        0.0     0.0     0.0
"Line.264256769"                           1        0.0        0.0        0.0        0.0     0.0     0.0        0.0        0.0        0.0        0.0
"Line.264256769"                           2        0.0        0.0        0.0        0.0     0.0     0.0
"Line.264256760"                           1        0.0        0.0        0.0        0.0     0.0     0.0        0.0        0.0        0.0        0.0
"Line.264256760"                           2        0.0        0.0        0.0        0.0     0.0     0.0
"Line.263532974"                           1        0.0        0.0        0.0        0.0     0.0     0.0        0.0        0.0        0.0        0.0
"Line.263532974"                           2        0.0        0.0        0.0        0.0     0.0     0.0
...
"Load.258904308_2"                         1        0.0        0.0        0.0        0.0     0.0     0.0
"Load.260761328_1"                         1        0.0        0.0        0.0        0.0     0.0     0.0
"Load.258904396_1"                         1        0.0        0.0        0.0        0.0     0.0     0.0
"Load.258904125_3"                         1        0.0        0.0        0.0        0.0     0.0     0.0
"Load.258904132_2"                         1        0.0        0.0        0.0        0.0     0.0     0.0
"Load.258908430_3"                         1        0.0        0.0        0.0        0.0     0.0     0.0
"Load.260761148_3"                         1        0.0        0.0        0.0        0.0     0.0     0.0
"Load.260761153_3"                         1        0.0        0.0        0.0        0.0     0.0     0.0
"Load.258904090_2"                         1        0.0        0.0        0.0        0.0     0.0     0.0
"Load.260761293_3"                         1        0.0        0.0        0.0        0.0     0.0     0.0
"Load.258904010_2"                         1        0.0        0.0        0.0        0.0     0.0     0.0
"Load.699645825_3"                         1        0.0        0.0        0.0        0.0     0.0     0.0
"Load.263530738_3"                         1        0.0        0.0        0.0        0.0     0.0     0.0
"Load.258908375_1"                         1        0.0        0.0        0.0        0.0     0.0     0.0
"Load.258904020_2"                         1        0.0        0.0        0.0        0.0     0.0     0.0
"Load.258904095_2"                         1        0.0        0.0        0.0        0.0     0.0     0.0
"Load.699645905_1"                         1        0.0        0.0        0.0        0.0     0.0     0.0
"Load.260761308_2"                         1        0.0        0.0        0.0        0.0     0.0     0.0
"Load.258908071_1"                         1        0.0        0.0        0.0        0.0     0.0     0.0
"Load.258908076_1"                         1        0.0        0.0        0.0        0.0     0.0     0.0
"Load.260760188_1"                         1        0.0        0.0        0.0        0.0     0.0     0.0
"Load.260760188_2"                         1        0.0        0.0        0.0        0.0     0.0     0.0
"Load.260760188_3"                         1        0.0        0.0        0.0        0.0     0.0     0.0
"Load.261302041_2"                         1        0.0        0.0        0.0        0.0     0.0     0.0
"Load.263991393_3"                         1        0.0        0.0        0.0        0.0     0.0     0.0
"Load.263530720_1"                         1        0.0        0.0        0.0        0.0     0.0     0.0
"Load.263530720_2"                         1        0.0        0.0        0.0        0.0     0.0     0.0
"Load.263530720_3"                         1        0.0        0.0        0.0        0.0     0.0     0.0
"Load.258908355_1"                         1        0.0        0.0        0.0        0.0     0.0     0.0
"Load.258908415_3"                         1        0.0        0.0        0.0        0.0     0.0     0.0
"Load.258903814_1"                         1        0.0        0.0        0.0        0.0     0.0     0.0
"Load.260761091_1"                         1        0.0        0.0        0.0        0.0     0.0     0.0
"Load.258908250_1"                         1        0.0        0.0        0.0        0.0     0.0     0.0
"Load.263533241_2"                         1        0.0        0.0        0.0        0.0     0.0     0.0
"Load.258908235_3"                         1        0.0        0.0        0.0        0.0     0.0     0.0
"Load.263530684_1"                         1        0.0        0.0        0.0        0.0     0.0     0.0
"Load.260761116_3"                         1        0.0        0.0        0.0        0.0     0.0     0.0
"Load.263533061_2"                         1        0.0        0.0        0.0        0.0     0.0     0.0
"Load.258908056_1"                         1        0.0        0.0        0.0        0.0     0.0     0.0
"Load.258908056_2"                         1        0.0        0.0        0.0        0.0     0.0     0.0
"Load.258908056_3"                         1        0.0        0.0        0.0        0.0     0.0     0.0
"Load.617632353_2"                         1        0.0        0.0        0.0        0.0     0.0     0.0
"Load.258908290_2"                         1        0.0        0.0        0.0        0.0     0.0     0.0
"Load.263533160_3"                         1        0.0        0.0        0.0        0.0     0.0     0.0
"Load.263530702_1"                         1        0.0        0.0        0.0        0.0     0.0     0.0
"Load.263533223_1"                         1        0.0        0.0        0.0        0.0     0.0     0.0
"Load.263997296_3"                         1        0.0        0.0        0.0        0.0     0.0     0.0
"Load.258907849_1"                         1        0.0        0.0        0.0        0.0     0.0     0.0
"Load.258908155_2"                         1        0.0        0.0        0.0        0.0     0.0     0.0
"Load.258908295_2"                         1        0.0        0.0        0.0        0.0     0.0     0.0
"Load.263533043_1"                         1        0.0        0.0        0.0        0.0     0.0     0.0
"Load.258908034_2"                         1        0.0        0.0        0.0        0.0     0.0     0.0
"Load.258907950_2"                         1        0.0        0.0        0.0        0.0     0.0     0.0
"Load.258908315_2"                         1        0.0        0.0        0.0        0.0     0.0     0.0
"Load.258908395_1"                         1        0.0        0.0        0.0        0.0     0.0     0.0
"Load.258908126_2"                         1        0.0        0.0        0.0        0.0     0.0     0.0
"Load.258907824_2"                         1        0.0        0.0        0.0        0.0     0.0     0.0
"Load.258908133_2"                         1        0.0        0.0        0.0        0.0     0.0     0.0
"Load.263533205_2"                         1        0.0        0.0        0.0        0.0     0.0     0.0
"Load.258896573_1"                         1        0.0        0.0        0.0        0.0     0.0     0.0
"Load.258896573_2"                         1        0.0        0.0        0.0        0.0     0.0     0.0
"Load.258896573_3"                         1        0.0        0.0        0.0        0.0     0.0     0.0
"Load.258908096_1"                         1        0.0        0.0        0.0        0.0     0.0     0.0
"Load.258907928_2"                         1        0.0        0.0        0.0        0.0     0.0     0.0
"Load.258908188_1"                         1        0.0        0.0        0.0        0.0     0.0     0.0
"Load.263533124_3"                         1        0.0        0.0        0.0        0.0     0.0     0.0
"Load.258907804_1"                         1        0.0        0.0        0.0        0.0     0.0     0.0
"Load.263532998_2"                         1        0.0        0.0        0.0        0.0     0.0     0.0
"Load.258907891_3"                         1        0.0        0.0        0.0        0.0     0.0     0.0
"Load.258907896_3"                         1        0.0        0.0        0.0        0.0     0.0     0.0
"Load.258907987_2"                         1        0.0        0.0        0.0        0.0     0.0     0.0
"Load.258907911_1"                         1        0.0        0.0        0.0        0.0     0.0     0.0
"Load.263533097_1"                         1        0.0        0.0        0.0        0.0     0.0     0.0
"Load.263533097_2"                         1        0.0        0.0        0.0        0.0     0.0     0.0
"Load.263533097_3"                         1        0.0        0.0        0.0        0.0     0.0     0.0
"Load.258896432_3"                         1        0.0        0.0        0.0        0.0     0.0     0.0
"Load.258907992_2"                         1        0.0        0.0        0.0        0.0     0.0     0.0
"Load.263533106_1"                         1        0.0        0.0        0.0        0.0     0.0     0.0
"Load.263533106_2"                         1        0.0        0.0        0.0        0.0     0.0     0.0
"Load.263533106_3"                         1        0.0        0.0        0.0        0.0     0.0     0.0
"Load.258896598_2"                         1        0.0        0.0        0.0        0.0     0.0     0.0
"Load.258896538_1"                         1        0.0        0.0        0.0        0.0     0.0     0.0
"Load.258896538_2"                         1        0.0        0.0        0.0        0.0     0.0     0.0
"Load.258896538_3"                         1        0.0        0.0        0.0        0.0     0.0     0.0
"Load.258896529_1"                         1        0.0        0.0        0.0        0.0     0.0     0.0
"Load.258896529_2"                         1        0.0        0.0        0.0        0.0     0.0     0.0
"Load.258896529_3"                         1        0.0        0.0        0.0        0.0     0.0     0.0
"Load.263534340_1"                         1        0.0        0.0        0.0        0.0     0.0     0.0
"Load.263534340_2"                         1        0.0        0.0        0.0        0.0     0.0     0.0
"Load.263534340_3"                         1        0.0        0.0        0.0        0.0     0.0     0.0
"Load.258896410_3"                         1        0.0        0.0        0.0        0.0     0.0     0.0
"Load.263534403_1"                         1        0.0        0.0        0.0        0.0     0.0     0.0
"Load.263534403_2"                         1        0.0        0.0        0.0        0.0     0.0     0.0
"Load.263534403_3"                         1        0.0        0.0        0.0        0.0     0.0     0.0
"Load.263974097_3"                         1        0.0        0.0        0.0        0.0     0.0     0.0
"Load.263532962_2"                         1        0.0        0.0        0.0        0.0     0.0     0.0
"Load.258896592_1"                         1        0.0        0.0        0.0        0.0     0.0     0.0
"Load.258896592_2"                         1        0.0        0.0        0.0        0.0     0.0     0.0
"Load.258896592_3"                         1        0.0        0.0        0.0        0.0     0.0     0.0
"Load.263532845_3"                         1        0.0        0.0        0.0        0.0     0.0     0.0
"Load.263681989_2"                         1        0.0        0.0        0.0        0.0     0.0     0.0
"Load.263532944_3"                         1        0.0        0.0        0.0        0.0     0.0     0.0
"Load.258896296_2"                         1        0.0        0.0        0.0        0.0     0.0     0.0
"Load.258896390_2"                         1        0.0        0.0        0.0        0.0     0.0     0.0
"Load.263534303_2"                         1        0.0        0.0        0.0        0.0     0.0     0.0
"Load.263532917_1"                         1        0.0        0.0        0.0        0.0     0.0     0.0
"Load.263534385_1"                         1        0.0        0.0        0.0        0.0     0.0     0.0
"Load.263532899_1"                         1        0.0        0.0        0.0        0.0     0.0     0.0
"Load.263532980_1"                         1        0.0        0.0        0.0        0.0     0.0     0.0
"Load.699603607_2"                         1        0.0        0.0        0.0        0.0     0.0     0.0
"Load.699624649_3"                         1        0.0        0.0        0.0        0.0     0.0     0.0
"Load.699624735_3"                         1        0.0        0.0        0.0        0.0     0.0     0.0
"Load.699623288_2"                         1        0.0        0.0        0.0        0.0     0.0     0.0
"Load.699646216_3"                         1        0.0        0.0        0.0        0.0     0.0     0.0
"Load.699623111_3"                         1        0.0        0.0        0.0        0.0     0.0     0.0
"Load.699624371_2"                         1        0.0        0.0        0.0        0.0     0.0     0.0
"Load.633960130_1"                         1        0.0        0.0        0.0        0.0     0.0     0.0
"Load.633960130_2"                         1        0.0        0.0        0.0        0.0     0.0     0.0
"Load.633960130_3"                         1        0.0        0.0        0.0        0.0     0.0     0.0
"Load.258907752_2"                         1        0.0        0.0        0.0        0.0     0.0     0.0
"Load.258907762_2"                         1        0.0        0.0        0.0        0.0     0.0     0.0
"Load.260762257_1"                         1        0.0        0.0        0.0        0.0     0.0     0.0
"Load.699625172_1"                         1        0.0        0.0        0.0        0.0     0.0     0.0
"Load.258904757_2"                         1        0.0        0.0        0.0        0.0     0.0     0.0
"Load.258907732_3"                         1        0.0        0.0        0.0        0.0     0.0     0.0
"Load.258904762_2"                         1        0.0        0.0        0.0        0.0     0.0     0.0
"Load.258904641_3"                         1        0.0        0.0        0.0        0.0     0.0     0.0
"Load.258904737_2"                         1        0.0        0.0        0.0        0.0     0.0     0.0
"Load.258907718_3"                         1        0.0        0.0        0.0        0.0     0.0     0.0
"Load.699643891_2"                         1        0.0        0.0        0.0        0.0     0.0     0.0
"Load.258904779_2"                         1        0.0        0.0        0.0        0.0     0.0     0.0
"Load.258907683_2"                         1        0.0        0.0        0.0        0.0     0.0     0.0
"Load.466941352_1"                         1        0.0        0.0        0.0        0.0     0.0     0.0
"Load.258907698_3"                         1        0.0        0.0        0.0        0.0     0.0     0.0
"Load.258907703_3"                         1        0.0        0.0        0.0        0.0     0.0     0.0
"Load.260761263_3"                         1        0.0        0.0        0.0        0.0     0.0     0.0
"Load.258904543_1"                         1        0.0        0.0        0.0        0.0     0.0     0.0
"Load.258904678_3"                         1        0.0        0.0        0.0        0.0     0.0     0.0
"Load.699624092_2"                         1        0.0        0.0        0.0        0.0     0.0     0.0
"Load.258904243_1"                         1        0.0        0.0        0.0        0.0     0.0     0.0
"Load.258904784_2"                         1        0.0        0.0        0.0        0.0     0.0     0.0
"Load.260761243_3"                         1        0.0        0.0        0.0        0.0     0.0     0.0
"Load.699625094_1"                         1        0.0        0.0        0.0        0.0     0.0     0.0
"Load.258904483_3"                         1        0.0        0.0        0.0        0.0     0.0     0.0
"Load.258904401_1"                         1        0.0        0.0        0.0        0.0     0.0     0.0
"Load.699645954_1"                         1        0.0        0.0        0.0        0.0     0.0     0.0
"Load.260761343_1"                         1        0.0        0.0        0.0        0.0     0.0     0.0
"Load.258904411_1"                         1        0.0        0.0        0.0        0.0     0.0     0.0
"Load.699603852_1"                         1        0.0        0.0        0.0        0.0     0.0     0.0
"Load.699603852_2"                         1        0.0        0.0        0.0        0.0     0.0     0.0
"Load.699603852_3"                         1        0.0        0.0        0.0        0.0     0.0     0.0
"Load.263681998_2"                         1        0.0        0.0        0.0        0.0     0.0     0.0
"Load.258904154_3"                         1        0.0        0.0        0.0        0.0     0.0     0.0
"Load.260761218_2"                         1        0.0        0.0        0.0        0.0     0.0     0.0
"Load.260761163_2"                         1        0.0        0.0        0.0        0.0     0.0     0.0
"Load.260761223_2"                         1        0.0        0.0        0.0        0.0     0.0     0.0
"Load.258904166_3"                         1        0.0        0.0        0.0        0.0     0.0     0.0
"Load.258908462_2"                         1        0.0        0.0        0.0        0.0     0.0     0.0
"Load.258904045_2"                         1        0.0        0.0        0.0        0.0     0.0     0.0
"Load.637684623_2"                         1        0.0        0.0        0.0        0.0     0.0     0.0
"Load.258904323_2"                         1        0.0        0.0        0.0        0.0     0.0     0.0
"Load.258903960_1"                         1        0.0        0.0        0.0        0.0     0.0     0.0
"Load.258903960_2"                         1        0.0        0.0        0.0        0.0     0.0     0.0
"Load.258903960_3"                         1        0.0        0.0        0.0        0.0     0.0     0.0
"Load.261245655_2"                         1        0.0        0.0        0.0        0.0     0.0     0.0
"Load.258904137_3"                         1        0.0        0.0        0.0        0.0     0.0     0.0
"Load.258904278_2"                         1        0.0        0.0        0.0        0.0     0.0     0.0
"Load.260761278_3"                         1        0.0        0.0        0.0        0.0     0.0     0.0
"Load.260761198_2"                         1        0.0        0.0        0.0        0.0     0.0     0.0
"Load.261245654_2"                         1        0.0        0.0        0.0        0.0     0.0     0.0
"Load.260761203_2"                         1        0.0        0.0        0.0        0.0     0.0     0.0
"Load.258903838_1"                         1        0.0        0.0        0.0        0.0     0.0     0.0
"Load.258903838_2"                         1        0.0        0.0        0.0        0.0     0.0     0.0
"Load.258903838_3"                         1        0.0        0.0        0.0        0.0     0.0     0.0
"Load.258904298_2"                         1        0.0        0.0        0.0        0.0     0.0     0.0
"Load.258904379_2"                         1        0.0        0.0        0.0        0.0     0.0     0.0
"Load.260761298_3"                         1        0.0        0.0        0.0        0.0     0.0     0.0
"Load.258904120_1"                         1        0.0        0.0        0.0        0.0     0.0     0.0
"Load.699624854_3"                         1        0.0        0.0        0.0        0.0     0.0     0.0
"Load.258908360_1"                         1        0.0        0.0        0.0        0.0     0.0     0.0
"Load.258904000_1"                         1        0.0        0.0        0.0        0.0     0.0     0.0
"Load.258904000_2"                         1        0.0        0.0        0.0        0.0     0.0     0.0
"Load.258904000_3"                         1        0.0        0.0        0.0        0.0     0.0     0.0
"Load.263530747_1"                         1        0.0        0.0        0.0        0.0     0.0     0.0
"Load.263530747_2"                         1        0.0        0.0        0.0        0.0     0.0     0.0
"Load.263530747_3"                         1        0.0        0.0        0.0        0.0     0.0     0.0
"Load.258908425_3"                         1        0.0        0.0        0.0        0.0     0.0     0.0
"Load.704839480_3"                         1        0.0        0.0        0.0        0.0     0.0     0.0
"Load.258908245_3"                         1        0.0        0.0        0.0        0.0     0.0     0.0
"Load.258904100_2"                         1        0.0        0.0        0.0        0.0     0.0     0.0
"Load.258908061_2"                         1        0.0        0.0        0.0        0.0     0.0     0.0
"Load.699624832_3"                         1        0.0        0.0        0.0        0.0     0.0     0.0
"Load.260761178_1"                         1        0.0        0.0        0.0        0.0     0.0     0.0
"Load.258903925_3"                         1        0.0        0.0        0.0        0.0     0.0     0.0
"Load.260761183_1"                         1        0.0        0.0        0.0        0.0     0.0     0.0
"Load.258908484_2"                         1        0.0        0.0        0.0        0.0     0.0     0.0
"Load.260761101_2"                         1        0.0        0.0        0.0        0.0     0.0     0.0
"Load.258903883_1"                         1        0.0        0.0        0.0        0.0     0.0     0.0
"Load.258903883_2"                         1        0.0        0.0        0.0        0.0     0.0     0.0
"Load.258903883_3"                         1        0.0        0.0        0.0        0.0     0.0     0.0
...

Total Circuit Losses =   18.8 +j  -45.3
